5
Properties=species:S:1:pos:R:3 energy=-417.96 pbc="F F F"
C        0.99826000      -0.00246000      -0.00436000
H        2.09021000      -0.00243000       0.00414000
H        0.63379000       1.02686000       0.00414000
H        0.62704000      -0.52773000       0.87811000
H        0.64136000      -0.50747000      -0.90540000
8
Properties=species:S:1:pos:R:3 energy=-712.42 pbc="F F F"
C        1.00404000      -0.00295000      -0.00640000
C        2.51596000      -0.00702000       0.00059000
H        0.62235000       1.02240000      -0.00164000
H        0.61411000      -0.51974000       0.87561000
H        0.62237000      -0.50842000      -0.89857000
H        2.89765000       0.50210000       0.89062000
H        2.90589000       0.50609000      -0.88357000
H        2.89763000      -1.03243000       0.00006000
6
Properties=species:S:1:pos:R:3 energy=-564.21 pbc="F F F"
C        0.98916000       0.00010000       0.00000000
C        2.32492000      -0.00017000      -0.00000000
H        0.42941000       0.93014000       0.00000000
H        0.42907000      -0.92985000       0.00000000
H        2.88500000       0.92980000      -0.00000000
H        2.88467000      -0.93020000       0.00000000